
.subckt AND2X1 Y B vdd gnd A
M0 a_2_6# A vdd vdd pfet w=4u l=0.4u
+ ad=0p pd=0u as=0p ps=0u 
M1 vdd B a_2_6# vdd pfet w=4u l=0.4u
+ ad=0p pd=0u as=0p ps=0u 
M2 Y a_2_6# vdd vdd pfet w=4u l=0.4u
+ ad=0p pd=0u as=0p ps=0u 
M3 a_9_6# A a_2_6# Gnd nfet w=4u l=0.4u
+ ad=0p pd=0u as=0p ps=0u 
M4 gnd B a_9_6# Gnd nfet w=4u l=0.4u
+ ad=0p pd=0u as=0p ps=0u 
M5 Y a_2_6# gnd Gnd nfet w=2u l=0.4u
+ ad=0p pd=0u as=0p ps=0u 
.ends AND2X1

.subckt AND2X2 vdd gnd A B Y
M0 a_2_6# A vdd vdd pfet w=4u l=0.4u
+ ad=0p pd=0u as=0p ps=0u 
M1 vdd B a_2_6# vdd pfet w=4u l=0.4u
+ ad=0p pd=0u as=0p ps=0u 
M2 Y a_2_6# vdd vdd pfet w=8u l=0.4u
+ ad=0p pd=0u as=0p ps=0u 
M3 a_9_6# A a_2_6# Gnd nfet w=4u l=0.4u
+ ad=0p pd=0u as=0p ps=0u 
M4 gnd B a_9_6# Gnd nfet w=4u l=0.4u
+ ad=0p pd=0u as=0p ps=0u 
M5 Y a_2_6# gnd Gnd nfet w=4u l=0.4u
+ ad=0p pd=0u as=0p ps=0u 
.ends AND2X2

.subckt AOI21X1 gnd vdd A B Y C
M0 vdd A a_2_54# vdd pfet w=8u l=0.4u
+ ad=0p pd=0u as=0p ps=0u 
M1 a_2_54# B vdd vdd pfet w=8u l=0.4u
+ ad=0p pd=0u as=0p ps=0u 
M2 Y C a_2_54# vdd pfet w=8u l=0.4u
+ ad=0p pd=0u as=0p ps=0u 
M3 a_12_6# A gnd Gnd nfet w=4u l=0.4u
+ ad=0p pd=0u as=0p ps=0u 
M4 Y B a_12_6# Gnd nfet w=4u l=0.4u
+ ad=0p pd=0u as=0p ps=0u 
M5 gnd C Y Gnd nfet w=2u l=0.4u
+ ad=0p pd=0u as=0p ps=0u 
.ends AOI21X1

.subckt AOI22X1 gnd vdd C D Y A B
M0 vdd A a_2_54# vdd pfet w=8u l=0.4u
+ ad=0p pd=0u as=0p ps=0u 
M1 a_2_54# B vdd vdd pfet w=8u l=0.4u
+ ad=0p pd=0u as=0p ps=0u 
M2 Y D a_2_54# vdd pfet w=8u l=0.4u
+ ad=0p pd=0u as=0p ps=0u 
M3 a_2_54# C Y vdd pfet w=8u l=0.4u
+ ad=0p pd=0u as=0p ps=0u 
M4 a_11_6# A gnd Gnd nfet w=4u l=0.4u
+ ad=0p pd=0u as=0p ps=0u 
M5 Y B a_11_6# Gnd nfet w=4u l=0.4u
+ ad=0p pd=0u as=0p ps=0u 
M6 a_28_6# D Y Gnd nfet w=4u l=0.4u
+ ad=0p pd=0u as=0p ps=0u 
M7 gnd C a_28_6# Gnd nfet w=4u l=0.4u
+ ad=0p pd=0u as=0p ps=0u 
.ends AOI22X1

.subckt BUFX2 vdd gnd A Y
M0 vdd A a_2_6# vdd pfet w=4u l=0.4u
+ ad=0p pd=0u as=0p ps=0u 
M1 Y a_2_6# vdd vdd pfet w=8u l=0.4u
+ ad=0p pd=0u as=0p ps=0u 
M2 gnd A a_2_6# Gnd nfet w=2u l=0.4u
+ ad=0p pd=0u as=0p ps=0u 
M3 Y a_2_6# gnd Gnd nfet w=4u l=0.4u
+ ad=0p pd=0u as=0p ps=0u 
.ends BUFX2

.subckt BUFX4 vdd gnd A Y
M0 vdd A a_2_6# vdd pfet w=6u l=0.4u
+ ad=0p pd=0u as=0p ps=0u 
M1 Y a_2_6# vdd vdd pfet w=8u l=0.4u
+ ad=0p pd=0u as=0p ps=0u 
M2 vdd a_2_6# Y vdd pfet w=8u l=0.4u
+ ad=0p pd=0u as=0p ps=0u 
M3 gnd A a_2_6# Gnd nfet w=3u l=0.4u
+ ad=0p pd=0u as=0p ps=0u 
M4 Y a_2_6# gnd Gnd nfet w=4u l=0.4u
+ ad=0p pd=0u as=0p ps=0u 
M5 gnd a_2_6# Y Gnd nfet w=4u l=0.4u
+ ad=0p pd=0u as=0p ps=0u 
.ends BUFX4

.subckt CLKBUF1 A vdd gnd Y
M0 a_9_6# A vdd vdd pfet w=8u l=0.4u
+ ad=0p pd=0u as=0p ps=0u 
M1 vdd A a_9_6# vdd pfet w=8u l=0.4u
+ ad=0p pd=0u as=0p ps=0u 
M2 a_25_6# a_9_6# vdd vdd pfet w=8u l=0.4u
+ ad=0p pd=0u as=0p ps=0u 
M3 vdd a_9_6# a_25_6# vdd pfet w=8u l=0.4u
+ ad=0p pd=0u as=0p ps=0u 
M4 a_41_6# a_25_6# vdd vdd pfet w=8u l=0.4u
+ ad=0p pd=0u as=0p ps=0u 
M5 vdd a_25_6# a_41_6# vdd pfet w=8u l=0.4u
+ ad=0p pd=0u as=0p ps=0u 
M6 Y a_41_6# vdd vdd pfet w=8u l=0.4u
+ ad=0p pd=0u as=0p ps=0u 
M7 vdd a_41_6# Y vdd pfet w=8u l=0.4u
+ ad=0p pd=0u as=0p ps=0u 
M8 a_9_6# A gnd Gnd nfet w=4u l=0.4u
+ ad=0p pd=0u as=0p ps=0u 
M9 gnd A a_9_6# Gnd nfet w=4u l=0.4u
+ ad=0p pd=0u as=0p ps=0u 
M10 a_25_6# a_9_6# gnd Gnd nfet w=4u l=0.4u
+ ad=0p pd=0u as=0p ps=0u 
M11 gnd a_9_6# a_25_6# Gnd nfet w=4u l=0.4u
+ ad=0p pd=0u as=0p ps=0u 
M12 a_41_6# a_25_6# gnd Gnd nfet w=4u l=0.4u
+ ad=0p pd=0u as=0p ps=0u 
M13 gnd a_25_6# a_41_6# Gnd nfet w=4u l=0.4u
+ ad=0p pd=0u as=0p ps=0u 
M14 Y a_41_6# gnd Gnd nfet w=4u l=0.4u
+ ad=0p pd=0u as=0p ps=0u 
M15 gnd a_41_6# Y Gnd nfet w=4u l=0.4u
+ ad=0p pd=0u as=0p ps=0u 
.ends CLKBUF1

.subckt CLKBUF2 vdd gnd A Y
M0 a_9_6# A vdd vdd pfet w=8u l=0.4u
+ ad=0p pd=0u as=0p ps=0u 
M1 vdd A a_9_6# vdd pfet w=8u l=0.4u
+ ad=0p pd=0u as=0p ps=0u 
M2 a_25_6# a_9_6# vdd vdd pfet w=8u l=0.4u
+ ad=0p pd=0u as=0p ps=0u 
M3 vdd a_9_6# a_25_6# vdd pfet w=8u l=0.4u
+ ad=0p pd=0u as=0p ps=0u 
M4 a_41_6# a_25_6# vdd vdd pfet w=8u l=0.4u
+ ad=0p pd=0u as=0p ps=0u 
M5 vdd a_25_6# a_41_6# vdd pfet w=8u l=0.4u
+ ad=0p pd=0u as=0p ps=0u 
M6 a_57_6# a_41_6# vdd vdd pfet w=8u l=0.4u
+ ad=0p pd=0u as=0p ps=0u 
M7 vdd a_41_6# a_57_6# vdd pfet w=8u l=0.4u
+ ad=0p pd=0u as=0p ps=0u 
M8 a_73_6# a_57_6# vdd vdd pfet w=8u l=0.4u
+ ad=0p pd=0u as=0p ps=0u 
M9 vdd a_57_6# a_73_6# vdd pfet w=8u l=0.4u
+ ad=0p pd=0u as=0p ps=0u 
M10 Y a_73_6# vdd vdd pfet w=8u l=0.4u
+ ad=0p pd=0u as=0p ps=0u 
M11 vdd a_73_6# Y vdd pfet w=8u l=0.4u
+ ad=0p pd=0u as=0p ps=0u 
M12 a_9_6# A gnd Gnd nfet w=4u l=0.4u
+ ad=0p pd=0u as=0p ps=0u 
M13 gnd A a_9_6# Gnd nfet w=4u l=0.4u
+ ad=0p pd=0u as=0p ps=0u 
M14 a_25_6# a_9_6# gnd Gnd nfet w=4u l=0.4u
+ ad=0p pd=0u as=0p ps=0u 
M15 gnd a_9_6# a_25_6# Gnd nfet w=4u l=0.4u
+ ad=0p pd=0u as=0p ps=0u 
M16 a_41_6# a_25_6# gnd Gnd nfet w=4u l=0.4u
+ ad=0p pd=0u as=0p ps=0u 
M17 gnd a_25_6# a_41_6# Gnd nfet w=4u l=0.4u
+ ad=0p pd=0u as=0p ps=0u 
M18 a_57_6# a_41_6# gnd Gnd nfet w=4u l=0.4u
+ ad=0p pd=0u as=0p ps=0u 
M19 gnd a_41_6# a_57_6# Gnd nfet w=4u l=0.4u
+ ad=0p pd=0u as=0p ps=0u 
M20 a_73_6# a_57_6# gnd Gnd nfet w=4u l=0.4u
+ ad=0p pd=0u as=0p ps=0u 
M21 gnd a_57_6# a_73_6# Gnd nfet w=4u l=0.4u
+ ad=0p pd=0u as=0p ps=0u 
M22 Y a_73_6# gnd Gnd nfet w=4u l=0.4u
+ ad=0p pd=0u as=0p ps=0u 
M23 gnd a_73_6# Y Gnd nfet w=4u l=0.4u
+ ad=0p pd=0u as=0p ps=0u 
.ends CLKBUF2

.subckt CLKBUF3 gnd vdd A Y
M0 a_9_6# A vdd vdd pfet w=8u l=0.4u
+ ad=0p pd=0u as=0p ps=0u 
M1 vdd A a_9_6# vdd pfet w=8u l=0.4u
+ ad=0p pd=0u as=0p ps=0u 
M2 a_25_6# a_9_6# vdd vdd pfet w=8u l=0.4u
+ ad=0p pd=0u as=0p ps=0u 
M3 vdd a_9_6# a_25_6# vdd pfet w=8u l=0.4u
+ ad=0p pd=0u as=0p ps=0u 
M4 a_41_6# a_25_6# vdd vdd pfet w=8u l=0.4u
+ ad=0p pd=0u as=0p ps=0u 
M5 vdd a_25_6# a_41_6# vdd pfet w=8u l=0.4u
+ ad=0p pd=0u as=0p ps=0u 
M6 a_57_6# a_41_6# vdd vdd pfet w=8u l=0.4u
+ ad=0p pd=0u as=0p ps=0u 
M7 vdd a_41_6# a_57_6# vdd pfet w=8u l=0.4u
+ ad=0p pd=0u as=0p ps=0u 
M8 a_73_6# a_57_6# vdd vdd pfet w=8u l=0.4u
+ ad=0p pd=0u as=0p ps=0u 
M9 vdd a_57_6# a_73_6# vdd pfet w=8u l=0.4u
+ ad=0p pd=0u as=0p ps=0u 
M10 a_89_6# a_73_6# vdd vdd pfet w=8u l=0.4u
+ ad=0p pd=0u as=0p ps=0u 
M11 vdd a_73_6# a_89_6# vdd pfet w=8u l=0.4u
+ ad=0p pd=0u as=0p ps=0u 
M12 a_105_6# a_89_6# vdd vdd pfet w=8u l=0.4u
+ ad=0p pd=0u as=0p ps=0u 
M13 vdd a_89_6# a_105_6# vdd pfet w=8u l=0.4u
+ ad=0p pd=0u as=0p ps=0u 
M14 Y a_105_6# vdd vdd pfet w=8u l=0.4u
+ ad=0p pd=0u as=0p ps=0u 
M15 vdd a_105_6# Y vdd pfet w=8u l=0.4u
+ ad=0p pd=0u as=0p ps=0u 
M16 a_9_6# A gnd Gnd nfet w=4u l=0.4u
+ ad=0p pd=0u as=0p ps=0u 
M17 gnd A a_9_6# Gnd nfet w=4u l=0.4u
+ ad=0p pd=0u as=0p ps=0u 
M18 a_25_6# a_9_6# gnd Gnd nfet w=4u l=0.4u
+ ad=0p pd=0u as=0p ps=0u 
M19 gnd a_9_6# a_25_6# Gnd nfet w=4u l=0.4u
+ ad=0p pd=0u as=0p ps=0u 
M20 a_41_6# a_25_6# gnd Gnd nfet w=4u l=0.4u
+ ad=0p pd=0u as=0p ps=0u 
M21 gnd a_25_6# a_41_6# Gnd nfet w=4u l=0.4u
+ ad=0p pd=0u as=0p ps=0u 
M22 a_57_6# a_41_6# gnd Gnd nfet w=4u l=0.4u
+ ad=0p pd=0u as=0p ps=0u 
M23 gnd a_41_6# a_57_6# Gnd nfet w=4u l=0.4u
+ ad=0p pd=0u as=0p ps=0u 
M24 a_73_6# a_57_6# gnd Gnd nfet w=4u l=0.4u
+ ad=0p pd=0u as=0p ps=0u 
M25 gnd a_57_6# a_73_6# Gnd nfet w=4u l=0.4u
+ ad=0p pd=0u as=0p ps=0u 
M26 a_89_6# a_73_6# gnd Gnd nfet w=4u l=0.4u
+ ad=0p pd=0u as=0p ps=0u 
M27 gnd a_73_6# a_89_6# Gnd nfet w=4u l=0.4u
+ ad=0p pd=0u as=0p ps=0u 
M28 a_105_6# a_89_6# gnd Gnd nfet w=4u l=0.4u
+ ad=0p pd=0u as=0p ps=0u 
M29 gnd a_89_6# a_105_6# Gnd nfet w=4u l=0.4u
+ ad=0p pd=0u as=0p ps=0u 
M30 Y a_105_6# gnd Gnd nfet w=4u l=0.4u
+ ad=0p pd=0u as=0p ps=0u 
M31 gnd a_105_6# Y Gnd nfet w=4u l=0.4u
+ ad=0p pd=0u as=0p ps=0u 
.ends CLKBUF3

.subckt DFFNEGX1 CLK vdd D gnd Q
M0 vdd CLK a_2_6# vdd pfet w=8u l=0.4u
+ ad=0p pd=0u as=0p ps=0u 
M1 a_17_74# D vdd vdd pfet w=4u l=0.4u
+ ad=0p pd=0u as=0p ps=0u 
M2 a_23_6# a_2_6# a_17_74# vdd pfet w=4u l=0.4u
+ ad=0p pd=0u as=0p ps=0u 
M3 a_31_74# CLK a_23_6# vdd pfet w=4u l=0.4u
+ ad=0p pd=0u as=0p ps=0u 
M4 vdd a_34_4# a_31_74# vdd pfet w=4u l=0.4u
+ ad=0p pd=0u as=0p ps=0u 
M5 a_34_4# a_23_6# vdd vdd pfet w=4u l=0.4u
+ ad=0p pd=0u as=0p ps=0u 
M6 a_61_74# a_34_4# vdd vdd pfet w=4u l=0.4u
+ ad=0p pd=0u as=0p ps=0u 
M7 a_66_6# CLK a_61_74# vdd pfet w=4u l=0.4u
+ ad=0p pd=0u as=0p ps=0u 
M8 a_76_84# a_2_6# a_66_6# vdd pfet w=2u l=0.4u
+ ad=0p pd=0u as=0p ps=0u 
M9 vdd Q a_76_84# vdd pfet w=2u l=0.4u
+ ad=0p pd=0u as=0p ps=0u 
M10 gnd CLK a_2_6# Gnd nfet w=4u l=0.4u
+ ad=0p pd=0u as=0p ps=0u 
M11 Q a_66_6# vdd vdd pfet w=8u l=0.4u
+ ad=0p pd=0u as=0p ps=0u 
M12 a_17_6# D gnd Gnd nfet w=2u l=0.4u
+ ad=0p pd=0u as=0p ps=0u 
M13 a_23_6# CLK a_17_6# Gnd nfet w=2u l=0.4u
+ ad=0p pd=0u as=0p ps=0u 
M14 a_31_6# a_2_6# a_23_6# Gnd nfet w=2u l=0.4u
+ ad=0p pd=0u as=0p ps=0u 
M15 gnd a_34_4# a_31_6# Gnd nfet w=2u l=0.4u
+ ad=0p pd=0u as=0p ps=0u 
M16 a_34_4# a_23_6# gnd Gnd nfet w=2u l=0.4u
+ ad=0p pd=0u as=0p ps=0u 
M17 a_61_6# a_34_4# gnd Gnd nfet w=2u l=0.4u
+ ad=0p pd=0u as=0p ps=0u 
M18 a_66_6# a_2_6# a_61_6# Gnd nfet w=2u l=0.4u
+ ad=0p pd=0u as=0p ps=0u 
M19 a_76_6# CLK a_66_6# Gnd nfet w=2u l=0.4u
+ ad=0p pd=0u as=0p ps=0u 
M20 gnd Q a_76_6# Gnd nfet w=2u l=0.4u
+ ad=0p pd=0u as=0p ps=0u 
M21 Q a_66_6# gnd Gnd nfet w=4u l=0.4u
+ ad=0p pd=0u as=0p ps=0u 
.ends DFFNEGX1

.subckt DFFPOSX1 vdd D gnd Q CLK
M0 vdd CLK a_2_6# vdd pfet w=8u l=0.4u
+ ad=0p pd=0u as=0p ps=0u 
M1 a_17_74# D vdd vdd pfet w=4u l=0.4u
+ ad=0p pd=0u as=0p ps=0u 
M2 a_22_6# CLK a_17_74# vdd pfet w=4u l=0.4u
+ ad=0p pd=0u as=0p ps=0u 
M3 a_31_74# a_2_6# a_22_6# vdd pfet w=4u l=0.4u
+ ad=0p pd=0u as=0p ps=0u 
M4 vdd a_34_4# a_31_74# vdd pfet w=4u l=0.4u
+ ad=0p pd=0u as=0p ps=0u 
M5 a_34_4# a_22_6# vdd vdd pfet w=4u l=0.4u
+ ad=0p pd=0u as=0p ps=0u 
M6 a_61_74# a_34_4# vdd vdd pfet w=4u l=0.4u
+ ad=0p pd=0u as=0p ps=0u 
M7 a_66_6# a_2_6# a_61_74# vdd pfet w=4u l=0.4u
+ ad=0p pd=0u as=0p ps=0u 
M8 a_76_84# CLK a_66_6# vdd pfet w=2u l=0.4u
+ ad=0p pd=0u as=0p ps=0u 
M9 vdd Q a_76_84# vdd pfet w=2u l=0.4u
+ ad=0p pd=0u as=0p ps=0u 
M10 gnd CLK a_2_6# Gnd nfet w=4u l=0.4u
+ ad=0p pd=0u as=0p ps=0u 
M11 Q a_66_6# vdd vdd pfet w=8u l=0.4u
+ ad=0p pd=0u as=0p ps=0u 
M12 a_17_6# D gnd Gnd nfet w=2u l=0.4u
+ ad=0p pd=0u as=0p ps=0u 
M13 a_22_6# a_2_6# a_17_6# Gnd nfet w=2u l=0.4u
+ ad=0p pd=0u as=0p ps=0u 
M14 a_31_6# CLK a_22_6# Gnd nfet w=2u l=0.4u
+ ad=0p pd=0u as=0p ps=0u 
M15 gnd a_34_4# a_31_6# Gnd nfet w=2u l=0.4u
+ ad=0p pd=0u as=0p ps=0u 
M16 a_34_4# a_22_6# gnd Gnd nfet w=2u l=0.4u
+ ad=0p pd=0u as=0p ps=0u 
M17 a_61_6# a_34_4# gnd Gnd nfet w=2u l=0.4u
+ ad=0p pd=0u as=0p ps=0u 
M18 a_66_6# CLK a_61_6# Gnd nfet w=2u l=0.4u
+ ad=0p pd=0u as=0p ps=0u 
M19 a_76_6# a_2_6# a_66_6# Gnd nfet w=2u l=0.4u
+ ad=0p pd=0u as=0p ps=0u 
M20 gnd Q a_76_6# Gnd nfet w=2u l=0.4u
+ ad=0p pd=0u as=0p ps=0u 
M21 Q a_66_6# gnd Gnd nfet w=4u l=0.4u
+ ad=0p pd=0u as=0p ps=0u 
.ends DFFPOSX1

.subckt DFFSR gnd vdd D S R Q CLK
M0 a_2_6# R vdd vdd pfet w=4u l=0.4u
+ ad=0p pd=0u as=0p ps=0u 
M1 vdd a_10_61# a_2_6# vdd pfet w=4u l=0.4u
+ ad=0p pd=0u as=0p ps=0u 
M2 a_10_61# a_23_27# vdd vdd pfet w=4u l=0.4u
+ ad=0p pd=0u as=0p ps=0u 
M3 vdd S a_10_61# vdd pfet w=4u l=0.4u
+ ad=0p pd=0u as=0p ps=0u 
M4 a_23_27# a_47_71# a_2_6# vdd pfet w=2u l=0.4u
+ ad=0p pd=0u as=0p ps=0u 
M5 a_57_6# a_47_4# a_23_27# vdd pfet w=2u l=0.4u
+ ad=0p pd=0u as=0p ps=0u 
M6 vdd D a_57_6# vdd pfet w=4u l=0.4u
+ ad=0p pd=0u as=0p ps=0u 
M7 vdd a_47_71# a_47_4# vdd pfet w=4u l=0.4u
+ ad=0p pd=0u as=0p ps=0u 
M8 a_47_71# CLK vdd vdd pfet w=4u l=0.4u
+ ad=0p pd=0u as=0p ps=0u 
M9 a_105_6# a_47_71# a_10_61# vdd pfet w=2u l=0.4u
+ ad=0p pd=0u as=0p ps=0u 
M10 a_113_6# a_47_4# a_105_6# vdd pfet w=2u l=0.4u
+ ad=0p pd=0u as=0p ps=0u 
M11 a_122_6# a_105_6# vdd vdd pfet w=4u l=0.4u
+ ad=0p pd=0u as=0p ps=0u 
M12 vdd R a_122_6# vdd pfet w=4u l=0.4u
+ ad=0p pd=0u as=0p ps=0u 
M13 a_113_6# a_122_6# vdd vdd pfet w=4u l=0.4u
+ ad=0p pd=0u as=0p ps=0u 
M14 vdd S a_113_6# vdd pfet w=4u l=0.4u
+ ad=0p pd=0u as=0p ps=0u 
M15 vdd a_122_6# Q vdd pfet w=4u l=0.4u
+ ad=0p pd=0u as=0p ps=0u 
M16 a_10_6# R a_2_6# Gnd nfet w=4u l=0.4u
+ ad=0p pd=0u as=0p ps=0u 
M17 gnd a_10_61# a_10_6# Gnd nfet w=4u l=0.4u
+ ad=0p pd=0u as=0p ps=0u 
M18 a_26_6# a_23_27# gnd Gnd nfet w=4u l=0.4u
+ ad=0p pd=0u as=0p ps=0u 
M19 a_10_61# S a_26_6# Gnd nfet w=4u l=0.4u
+ ad=0p pd=0u as=0p ps=0u 
M20 a_23_27# a_47_4# a_2_6# Gnd nfet w=2u l=0.4u
+ ad=0p pd=0u as=0p ps=0u 
M21 a_57_6# a_47_71# a_23_27# Gnd nfet w=2u l=0.4u
+ ad=0p pd=0u as=0p ps=0u 
M22 gnd D a_57_6# Gnd nfet w=2u l=0.4u
+ ad=0p pd=0u as=0p ps=0u 
M23 gnd a_47_71# a_47_4# Gnd nfet w=2u l=0.4u
+ ad=0p pd=0u as=0p ps=0u 
M24 a_47_71# CLK gnd Gnd nfet w=2u l=0.4u
+ ad=0p pd=0u as=0p ps=0u 
M25 a_105_6# a_47_4# a_10_61# Gnd nfet w=2u l=0.4u
+ ad=0p pd=0u as=0p ps=0u 
M26 a_113_6# a_47_71# a_105_6# Gnd nfet w=2u l=0.4u
+ ad=0p pd=0u as=0p ps=0u 
M27 a_130_6# a_105_6# a_122_6# Gnd nfet w=4u l=0.4u
+ ad=0p pd=0u as=0p ps=0u 
M28 gnd R a_130_6# Gnd nfet w=4u l=0.4u
+ ad=0p pd=0u as=0p ps=0u 
M29 a_146_6# a_122_6# gnd Gnd nfet w=4u l=0.4u
+ ad=0p pd=0u as=0p ps=0u 
M30 a_113_6# S a_146_6# Gnd nfet w=4u l=0.4u
+ ad=0p pd=0u as=0p ps=0u 
M31 gnd a_122_6# Q Gnd nfet w=2u l=0.4u
+ ad=0p pd=0u as=0p ps=0u 
.ends DFFSR

.subckt FAX1 gnd vdd A B C YC YS
M0 vdd A a_2_54# vdd pfet w=8u l=0.4u
+ ad=0p pd=0u as=0p ps=0u 
M1 a_2_54# B vdd vdd pfet w=8u l=0.4u
+ ad=0p pd=0u as=0p ps=0u 
M2 a_25_6# C a_2_54# vdd pfet w=8u l=0.4u
+ ad=0p pd=0u as=0p ps=0u 
M3 a_33_54# B a_25_6# vdd pfet w=8u l=0.4u
+ ad=0p pd=0u as=0p ps=0u 
M4 vdd A a_33_54# vdd pfet w=8u l=0.4u
+ ad=0p pd=0u as=0p ps=0u 
M5 a_46_54# A vdd vdd pfet w=8u l=0.4u
+ ad=0p pd=0u as=0p ps=0u 
M6 vdd B a_46_54# vdd pfet w=7.2u l=0.4u
+ ad=0p pd=0u as=0p ps=0u 
M7 a_46_54# C vdd vdd pfet w=7.2u l=0.4u
+ ad=0p pd=0u as=0p ps=0u 
M8 a_70_6# a_25_6# a_46_54# vdd pfet w=7.2u l=0.4u
+ ad=0p pd=0u as=0p ps=0u 
M9 a_79_46# C a_70_6# vdd pfet w=9.6u l=0.4u
+ ad=0p pd=0u as=0p ps=0u 
M10 a_84_46# B a_79_46# vdd pfet w=9.6u l=0.4u
+ ad=0p pd=0u as=0p ps=0u 
M11 vdd A a_84_46# vdd pfet w=9.6u l=0.4u
+ ad=0p pd=0u as=0p ps=0u 
M12 YS a_70_6# vdd vdd pfet w=4u l=0.4u
+ ad=0p pd=0u as=0p ps=0u 
M13 YC a_25_6# vdd vdd pfet w=4u l=0.4u
+ ad=0p pd=0u as=0p ps=0u 
M14 gnd A a_2_6# Gnd nfet w=4u l=0.4u
+ ad=0p pd=0u as=0p ps=0u 
M15 a_2_6# B gnd Gnd nfet w=4u l=0.4u
+ ad=0p pd=0u as=0p ps=0u 
M16 a_25_6# C a_2_6# Gnd nfet w=4u l=0.4u
+ ad=0p pd=0u as=0p ps=0u 
M17 a_33_6# B a_25_6# Gnd nfet w=4u l=0.4u
+ ad=0p pd=0u as=0p ps=0u 
M18 gnd A a_33_6# Gnd nfet w=4u l=0.4u
+ ad=0p pd=0u as=0p ps=0u 
M19 a_46_6# A gnd Gnd nfet w=4u l=0.4u
+ ad=0p pd=0u as=0p ps=0u 
M20 gnd B a_46_6# Gnd nfet w=4u l=0.4u
+ ad=0p pd=0u as=0p ps=0u 
M21 a_46_6# C gnd Gnd nfet w=4u l=0.4u
+ ad=0p pd=0u as=0p ps=0u 
M22 a_70_6# a_25_6# a_46_6# Gnd nfet w=4u l=0.4u
+ ad=0p pd=0u as=0p ps=0u 
M23 a_79_6# C a_70_6# Gnd nfet w=4u l=0.4u
+ ad=0p pd=0u as=0p ps=0u 
M24 a_84_6# B a_79_6# Gnd nfet w=4u l=0.4u
+ ad=0p pd=0u as=0p ps=0u 
M25 gnd A a_84_6# Gnd nfet w=4u l=0.4u
+ ad=0p pd=0u as=0p ps=0u 
M26 YS a_70_6# gnd Gnd nfet w=2u l=0.4u
+ ad=0p pd=0u as=0p ps=0u 
M27 YC a_25_6# gnd Gnd nfet w=2u l=0.4u
+ ad=0p pd=0u as=0p ps=0u 
.ends FAX1

.subckt HAX1 vdd gnd YC A B YS
M0 vdd A a_2_74# vdd pfet w=4u l=0.4u
+ ad=0p pd=0u as=0p ps=0u 
M1 a_2_74# B vdd vdd pfet w=4u l=0.4u
+ ad=0p pd=0u as=0p ps=0u 
M2 vdd a_2_74# YC vdd pfet w=4u l=0.4u
+ ad=0p pd=0u as=0p ps=0u 
M3 a_41_74# a_2_74# vdd vdd pfet w=4u l=0.4u
+ ad=0p pd=0u as=0p ps=0u 
M4 a_49_54# B a_41_74# vdd pfet w=8u l=0.4u
+ ad=0p pd=0u as=0p ps=0u 
M5 vdd A a_49_54# vdd pfet w=8u l=0.4u
+ ad=0p pd=0u as=0p ps=0u 
M6 YS a_41_74# vdd vdd pfet w=4u l=0.4u
+ ad=0p pd=0u as=0p ps=0u 
M7 a_9_6# A gnd Gnd nfet w=4u l=0.4u
+ ad=0p pd=0u as=0p ps=0u 
M8 a_2_74# B a_9_6# Gnd nfet w=4u l=0.4u
+ ad=0p pd=0u as=0p ps=0u 
M9 gnd a_2_74# YC Gnd nfet w=2u l=0.4u
+ ad=0p pd=0u as=0p ps=0u 
M10 a_38_6# a_2_74# gnd Gnd nfet w=4u l=0.4u
+ ad=0p pd=0u as=0p ps=0u 
M11 a_41_74# B a_38_6# Gnd nfet w=4u l=0.4u
+ ad=0p pd=0u as=0p ps=0u 
M12 a_38_6# A a_41_74# Gnd nfet w=4u l=0.4u
+ ad=0p pd=0u as=0p ps=0u 
M13 YS a_41_74# gnd Gnd nfet w=2u l=0.4u
+ ad=0p pd=0u as=0p ps=0u 
.ends HAX1

.subckt INVX1 A Y vdd gnd
M0 Y A vdd vdd pfet w=4u l=0.4u
+ ad=0p pd=0u as=0p ps=0u 
M1 Y A gnd Gnd nfet w=2u l=0.4u
+ ad=0p pd=0u as=0p ps=0u 
.ends INVX1

.subckt INVX2 vdd gnd Y A
M0 Y A vdd vdd pfet w=8u l=0.4u
+ ad=0p pd=0u as=0p ps=0u 
M1 Y A gnd Gnd nfet w=4u l=0.4u
+ ad=0p pd=0u as=0p ps=0u 
.ends INVX2

.subckt INVX4 vdd gnd Y A
M0 Y A vdd vdd pfet w=8u l=0.4u
+ ad=0p pd=0u as=0p ps=0u 
M1 vdd A Y vdd pfet w=8u l=0.4u
+ ad=0p pd=0u as=0p ps=0u 
M2 Y A gnd Gnd nfet w=4u l=0.4u
+ ad=0p pd=0u as=0p ps=0u 
M3 gnd A Y Gnd nfet w=4u l=0.4u
+ ad=0p pd=0u as=0p ps=0u 
.ends INVX4

.subckt INVX8 vdd gnd A Y
M0 Y A vdd vdd pfet w=8u l=0.4u
+ ad=0p pd=0u as=0p ps=0u 
M1 vdd A Y vdd pfet w=8u l=0.4u
+ ad=0p pd=0u as=0p ps=0u 
M2 Y A vdd vdd pfet w=8u l=0.4u
+ ad=0p pd=0u as=0p ps=0u 
M3 vdd A Y vdd pfet w=8u l=0.4u
+ ad=0p pd=0u as=0p ps=0u 
M4 Y A gnd Gnd nfet w=4u l=0.4u
+ ad=0p pd=0u as=0p ps=0u 
M5 gnd A Y Gnd nfet w=4u l=0.4u
+ ad=0p pd=0u as=0p ps=0u 
M6 Y A gnd Gnd nfet w=4u l=0.4u
+ ad=0p pd=0u as=0p ps=0u 
M7 gnd A Y Gnd nfet w=4u l=0.4u
+ ad=0p pd=0u as=0p ps=0u 
.ends INVX8

.subckt LATCH D Q gnd vdd CLK
M0 vdd CLK a_2_6# vdd pfet w=8u l=0.4u
+ ad=0p pd=0u as=0p ps=0u 
M1 a_18_74# D vdd vdd pfet w=4u l=0.4u
+ ad=0p pd=0u as=0p ps=0u 
M2 a_23_6# a_2_6# a_18_74# vdd pfet w=4u l=0.4u
+ ad=0p pd=0u as=0p ps=0u 
M3 a_35_84# CLK a_23_6# vdd pfet w=2u l=0.4u
+ ad=0p pd=0u as=0p ps=0u 
M4 vdd Q a_35_84# vdd pfet w=2u l=0.4u
+ ad=0p pd=0u as=0p ps=0u 
M5 gnd CLK a_2_6# Gnd nfet w=4u l=0.4u
+ ad=0p pd=0u as=0p ps=0u 
M6 Q a_23_6# vdd vdd pfet w=8u l=0.4u
+ ad=0p pd=0u as=0p ps=0u 
M7 a_18_6# D gnd Gnd nfet w=2u l=0.4u
+ ad=0p pd=0u as=0p ps=0u 
M8 a_23_6# CLK a_18_6# Gnd nfet w=2u l=0.4u
+ ad=0p pd=0u as=0p ps=0u 
M9 a_35_6# a_2_6# a_23_6# Gnd nfet w=2u l=0.4u
+ ad=0p pd=0u as=0p ps=0u 
M10 gnd Q a_35_6# Gnd nfet w=2u l=0.4u
+ ad=0p pd=0u as=0p ps=0u 
M11 Q a_23_6# gnd Gnd nfet w=4u l=0.4u
+ ad=0p pd=0u as=0p ps=0u 
.ends LATCH

.subckt MUX2X1 S vdd gnd Y A B
M0 vdd S a_2_10# vdd pfet w=4u l=0.4u
+ ad=0p pd=0u as=0p ps=0u 
M1 a_17_50# B vdd vdd pfet w=8u l=0.4u
+ ad=0p pd=0u as=0p ps=0u 
M2 Y S a_17_50# vdd pfet w=8u l=0.4u
+ ad=0p pd=0u as=0p ps=0u 
M3 a_30_54# a_2_10# Y vdd pfet w=8u l=0.4u
+ ad=0p pd=0u as=0p ps=0u 
M4 vdd A a_30_54# vdd pfet w=8u l=0.4u
+ ad=0p pd=0u as=0p ps=0u 
M5 gnd S a_2_10# Gnd nfet w=2u l=0.4u
+ ad=0p pd=0u as=0p ps=0u 
M6 a_17_10# B gnd Gnd nfet w=4u l=0.4u
+ ad=0p pd=0u as=0p ps=0u 
M7 Y a_2_10# a_17_10# Gnd nfet w=4u l=0.4u
+ ad=0p pd=0u as=0p ps=0u 
M8 a_30_10# S Y Gnd nfet w=4u l=0.4u
+ ad=0p pd=0u as=0p ps=0u 
M9 gnd A a_30_10# Gnd nfet w=4u l=0.4u
+ ad=0p pd=0u as=0p ps=0u 
.ends MUX2X1

.subckt NAND2X1 vdd Y gnd A B
M0 Y A vdd vdd pfet w=4u l=0.4u
+ ad=0p pd=0u as=0p ps=0u 
M1 vdd B Y vdd pfet w=4u l=0.4u
+ ad=0p pd=0u as=0p ps=0u 
M2 a_9_6# A gnd Gnd nfet w=4u l=0.4u
+ ad=0p pd=0u as=0p ps=0u 
M3 Y B a_9_6# Gnd nfet w=4u l=0.4u
+ ad=0p pd=0u as=0p ps=0u 
.ends NAND2X1

.subckt NAND3X1 B vdd gnd A C Y
M0 Y A vdd vdd pfet w=4u l=0.4u
+ ad=0p pd=0u as=0p ps=0u 
M1 vdd B Y vdd pfet w=4u l=0.4u
+ ad=0p pd=0u as=0p ps=0u 
M2 Y C vdd vdd pfet w=4u l=0.4u
+ ad=0p pd=0u as=0p ps=0u 
M3 a_9_6# A gnd Gnd nfet w=6u l=0.4u
+ ad=0p pd=0u as=0p ps=0u 
M4 a_14_6# B a_9_6# Gnd nfet w=6u l=0.4u
+ ad=0p pd=0u as=0p ps=0u 
M5 Y C a_14_6# Gnd nfet w=6u l=0.4u
+ ad=0p pd=0u as=0p ps=0u 
.ends NAND3X1

.subckt NOR2X1 vdd B gnd Y A
M0 a_9_54# A vdd vdd pfet w=8u l=0.4u
+ ad=0p pd=0u as=0p ps=0u 
M1 Y B a_9_54# vdd pfet w=8u l=0.4u
+ ad=0p pd=0u as=0p ps=0u 
M2 Y A gnd Gnd nfet w=2u l=0.4u
+ ad=0p pd=0u as=0p ps=0u 
M3 gnd B Y Gnd nfet w=2u l=0.4u
+ ad=0p pd=0u as=0p ps=0u 
.ends NOR2X1

.subckt NOR3X1 vdd gnd B C A Y
M0 vdd A a_2_64# vdd pfet w=6u l=0.4u
+ ad=0p pd=0u as=0p ps=0u 
M1 a_2_64# A vdd vdd pfet w=6u l=0.4u
+ ad=0p pd=0u as=0p ps=0u 
M2 a_25_64# B a_2_64# vdd pfet w=6u l=0.4u
+ ad=0p pd=0u as=0p ps=0u 
M3 a_2_64# B a_25_64# vdd pfet w=6u l=0.4u
+ ad=0p pd=0u as=0p ps=0u 
M4 Y C a_25_64# vdd pfet w=6u l=0.4u
+ ad=0p pd=0u as=0p ps=0u 
M5 a_25_64# C Y vdd pfet w=6u l=0.4u
+ ad=0p pd=0u as=0p ps=0u 
M6 Y A gnd Gnd nfet w=2u l=0.4u
+ ad=0p pd=0u as=0p ps=0u 
M7 gnd B Y Gnd nfet w=2u l=0.4u
+ ad=0p pd=0u as=0p ps=0u 
M8 Y C gnd Gnd nfet w=2u l=0.4u
+ ad=0p pd=0u as=0p ps=0u 
.ends NOR3X1

.subckt OAI21X1 gnd vdd A B Y C
M0 a_9_54# A vdd vdd pfet w=8u l=0.4u
+ ad=0p pd=0u as=0p ps=0u 
M1 Y B a_9_54# vdd pfet w=8u l=0.4u
+ ad=0p pd=0u as=0p ps=0u 
M2 vdd C Y vdd pfet w=4u l=0.4u
+ ad=0p pd=0u as=0p ps=0u 
M3 gnd A a_2_6# Gnd nfet w=4u l=0.4u
+ ad=0p pd=0u as=0p ps=0u 
M4 a_2_6# B gnd Gnd nfet w=4u l=0.4u
+ ad=0p pd=0u as=0p ps=0u 
M5 Y C a_2_6# Gnd nfet w=4u l=0.4u
+ ad=0p pd=0u as=0p ps=0u 
.ends OAI21X1

.subckt OAI22X1 gnd vdd D C A B Y
M0 a_9_54# A vdd vdd pfet w=8u l=0.4u
+ ad=0p pd=0u as=0p ps=0u 
M1 Y B a_9_54# vdd pfet w=8u l=0.4u
+ ad=0p pd=0u as=0p ps=0u 
M2 a_28_54# D Y vdd pfet w=8u l=0.4u
+ ad=0p pd=0u as=0p ps=0u 
M3 vdd C a_28_54# vdd pfet w=8u l=0.4u
+ ad=0p pd=0u as=0p ps=0u 
M4 gnd A a_2_6# Gnd nfet w=4u l=0.4u
+ ad=0p pd=0u as=0p ps=0u 
M5 a_2_6# B gnd Gnd nfet w=4u l=0.4u
+ ad=0p pd=0u as=0p ps=0u 
M6 Y D a_2_6# Gnd nfet w=4u l=0.4u
+ ad=0p pd=0u as=0p ps=0u 
M7 a_2_6# C Y Gnd nfet w=4u l=0.4u
+ ad=0p pd=0u as=0p ps=0u 
.ends OAI22X1

.subckt OR2X1 Y B vdd gnd A
M0 a_9_54# A a_2_54# vdd pfet w=8u l=0.4u
+ ad=0p pd=0u as=0p ps=0u 
M1 vdd B a_9_54# vdd pfet w=8u l=0.4u
+ ad=0p pd=0u as=0p ps=0u 
M2 Y a_2_54# vdd vdd pfet w=4u l=0.4u
+ ad=0p pd=0u as=0p ps=0u 
M3 a_2_54# A gnd Gnd nfet w=2u l=0.4u
+ ad=0p pd=0u as=0p ps=0u 
M4 gnd B a_2_54# Gnd nfet w=2u l=0.4u
+ ad=0p pd=0u as=0p ps=0u 
M5 Y a_2_54# gnd Gnd nfet w=2u l=0.4u
+ ad=0p pd=0u as=0p ps=0u 
.ends OR2X1

.subckt OR2X2 Y B vdd gnd A
M0 a_9_54# A a_2_54# vdd pfet w=8u l=0.4u
+ ad=0p pd=0u as=0p ps=0u 
M1 vdd B a_9_54# vdd pfet w=8u l=0.4u
+ ad=0p pd=0u as=0p ps=0u 
M2 Y a_2_54# vdd vdd pfet w=8u l=0.4u
+ ad=0p pd=0u as=0p ps=0u 
M3 a_2_54# A gnd Gnd nfet w=2u l=0.4u
+ ad=0p pd=0u as=0p ps=0u 
M4 gnd B a_2_54# Gnd nfet w=2u l=0.4u
+ ad=0p pd=0u as=0p ps=0u 
M5 Y a_2_54# gnd Gnd nfet w=4u l=0.4u
+ ad=0p pd=0u as=0p ps=0u 
.ends OR2X2

.subckt PADINC DI Vdd2 Gnd2 Vdd Gnd YPAD
M0 Vdd2 Vdd2 YPAD Vdd2 hpfet w=35u l=0.6u
+ ad=0p pd=0u as=0p ps=0u 
M1 Vdd2 Vdd2 YPAD Vdd2 hpfet w=35u l=0.6u
+ ad=0p pd=0u as=0p ps=0u 
M2 YPAD Vdd2 Vdd2 Vdd2 hpfet w=35u l=0.6u
+ ad=0p pd=0u as=0p ps=0u 
M3 YPAD Vdd2 Vdd2 Vdd2 hpfet w=35u l=0.6u
+ ad=0p pd=0u as=0p ps=0u 
M4 Vdd2 Vdd2 YPAD Vdd2 hpfet w=35u l=0.6u
+ ad=0p pd=0u as=0p ps=0u 
M5 Vdd2 Vdd2 YPAD Vdd2 hpfet w=35u l=0.6u
+ ad=0p pd=0u as=0p ps=0u 
M6 YPAD Vdd2 Vdd2 Vdd2 hpfet w=35u l=0.6u
+ ad=0p pd=0u as=0p ps=0u 
M7 YPAD Vdd2 Vdd2 Vdd2 hpfet w=35u l=0.6u
+ ad=0p pd=0u as=0p ps=0u 
M8 Vdd2 Vdd2 YPAD Vdd2 hpfet w=35u l=0.6u
+ ad=0p pd=0u as=0p ps=0u 
M9 Vdd2 Vdd2 YPAD Vdd2 hpfet w=35u l=0.6u
+ ad=0p pd=0u as=0p ps=0u 
M10 YPAD Vdd2 Vdd2 Vdd2 hpfet w=35u l=0.6u
+ ad=0p pd=0u as=0p ps=0u 
M11 YPAD Vdd2 Vdd2 Vdd2 hpfet w=35u l=0.6u
+ ad=0p pd=0u as=0p ps=0u 
M12 Vdd2 a_31_658# YPAD Vdd2 hpfet w=35u l=0.6u
+ ad=0p pd=0u as=0p ps=0u 
M13 Vdd2 a_31_658# YPAD Vdd2 hpfet w=35u l=0.6u
+ ad=0p pd=0u as=0p ps=0u 
M14 YPAD a_31_658# Vdd2 Vdd2 hpfet w=35u l=0.6u
+ ad=0p pd=0u as=0p ps=0u 
M15 YPAD a_31_658# Vdd2 Vdd2 hpfet w=35u l=0.6u
+ ad=0p pd=0u as=0p ps=0u 
M16 Gnd Gnd2 a_15_420# Gnd hnfet w=6u l=0.6u
+ ad=0p pd=0u as=0p ps=0u 
M17 a_32_420# a_15_420# Gnd Gnd hnfet w=6u l=0.6u
+ ad=0p pd=0u as=0p ps=0u 
M18 Gnd Gnd2 a_41_540# Gnd hnfet w=6u l=0.6u
+ ad=0p pd=0u as=0p ps=0u 
M19 a_41_540# Gnd2 Gnd Gnd hnfet w=6u l=0.6u
+ ad=0p pd=0u as=0p ps=0u 
M20 Gnd Gnd2 a_41_540# Gnd hnfet w=6u l=0.6u
+ ad=0p pd=0u as=0p ps=0u 
M21 a_41_540# Gnd2 Gnd Gnd hnfet w=6u l=0.6u
+ ad=0p pd=0u as=0p ps=0u 
M22 Gnd Gnd2 a_41_540# Gnd hnfet w=6u l=0.6u
+ ad=0p pd=0u as=0p ps=0u 
M23 a_41_540# a_15_420# Gnd Gnd hnfet w=6u l=0.6u
+ ad=0p pd=0u as=0p ps=0u 
M24 Gnd a_15_420# a_41_540# Gnd hnfet w=6u l=0.6u
+ ad=0p pd=0u as=0p ps=0u 
M25 a_41_540# a_15_420# Gnd Gnd hnfet w=6u l=0.6u
+ ad=0p pd=0u as=0p ps=0u 
M26 Gnd a_15_420# a_41_540# Gnd hnfet w=6u l=0.6u
+ ad=0p pd=0u as=0p ps=0u 
M27 a_41_540# a_15_420# Gnd Gnd hnfet w=6u l=0.6u
+ ad=0p pd=0u as=0p ps=0u 
M28 a_41_420# a_32_420# a_41_540# Gnd hnfet w=6u l=0.6u
+ ad=0p pd=0u as=0p ps=0u 
M29 a_41_540# a_32_420# a_41_420# Gnd hnfet w=6u l=0.6u
+ ad=0p pd=0u as=0p ps=0u 
M30 a_41_420# a_32_420# a_41_540# Gnd hnfet w=6u l=0.6u
+ ad=0p pd=0u as=0p ps=0u 
M31 a_41_540# a_32_420# a_41_420# Gnd hnfet w=6u l=0.6u
+ ad=0p pd=0u as=0p ps=0u 
M32 Gnd a_176_413# a_31_658# Gnd hnfet w=6u l=0.6u
+ ad=0p pd=0u as=0p ps=0u 
M33 a_176_413# a_41_420# Gnd Gnd hnfet w=6u l=0.6u
+ ad=0p pd=0u as=0p ps=0u 
M34 Gnd a_202_572# a_31_343# Gnd hnfet w=6u l=0.6u
+ ad=0p pd=0u as=0p ps=0u 
M35 a_202_572# a_41_540# Gnd Gnd hnfet w=6u l=0.6u
+ ad=0p pd=0u as=0p ps=0u 
M36 a_329_420# a_326_417# Gnd Gnd hnfet w=6u l=0.6u
+ ad=0p pd=0u as=0p ps=0u 
M37 Gnd a_326_417# a_329_420# Gnd hnfet w=6u l=0.6u
+ ad=0p pd=0u as=0p ps=0u 
M38 a_329_420# a_326_417# Gnd Gnd hnfet w=6u l=0.6u
+ ad=0p pd=0u as=0p ps=0u 
M39 Gnd a_326_417# a_329_420# Gnd hnfet w=6u l=0.6u
+ ad=0p pd=0u as=0p ps=0u 
M40 a_329_420# a_326_417# Gnd Gnd hnfet w=6u l=0.6u
+ ad=0p pd=0u as=0p ps=0u 
M41 Gnd a_326_417# a_329_420# Gnd hnfet w=6u l=0.6u
+ ad=0p pd=0u as=0p ps=0u 
M42 DI a_329_420# Gnd Gnd hnfet w=6u l=0.6u
+ ad=0p pd=0u as=0p ps=0u 
M43 Gnd a_329_420# DI Gnd hnfet w=6u l=0.6u
+ ad=0p pd=0u as=0p ps=0u 
M44 DI a_329_420# Gnd Gnd hnfet w=6u l=0.6u
+ ad=0p pd=0u as=0p ps=0u 
M45 Gnd a_329_420# DI Gnd hnfet w=6u l=0.6u
+ ad=0p pd=0u as=0p ps=0u 
M46 DI a_329_420# Gnd Gnd hnfet w=6u l=0.6u
+ ad=0p pd=0u as=0p ps=0u 
M47 Gnd a_329_420# DI Gnd hnfet w=6u l=0.6u
+ ad=0p pd=0u as=0p ps=0u 
M48 Vdd Gnd2 a_15_420# Vdd hpfet w=10.4u l=0.6u
+ ad=0p pd=0u as=0p ps=0u 
M49 a_32_420# a_15_420# Vdd Vdd hpfet w=10.4u l=0.6u
+ ad=0p pd=0u as=0p ps=0u 
M50 Vdd Gnd2 a_41_420# Vdd hpfet w=10.4u l=0.6u
+ ad=0p pd=0u as=0p ps=0u 
M51 a_41_420# Gnd2 Vdd Vdd hpfet w=10.4u l=0.6u
+ ad=0p pd=0u as=0p ps=0u 
M52 Vdd Gnd2 a_41_420# Vdd hpfet w=10.4u l=0.6u
+ ad=0p pd=0u as=0p ps=0u 
M53 a_41_420# Gnd2 Vdd Vdd hpfet w=10.4u l=0.6u
+ ad=0p pd=0u as=0p ps=0u 
M54 Vdd Gnd2 a_41_420# Vdd hpfet w=10.4u l=0.6u
+ ad=0p pd=0u as=0p ps=0u 
M55 a_41_420# a_32_420# Vdd Vdd hpfet w=10.4u l=0.6u
+ ad=0p pd=0u as=0p ps=0u 
M56 Vdd a_32_420# a_41_420# Vdd hpfet w=10.4u l=0.6u
+ ad=0p pd=0u as=0p ps=0u 
M57 a_41_420# a_32_420# Vdd Vdd hpfet w=10.4u l=0.6u
+ ad=0p pd=0u as=0p ps=0u 
M58 Vdd a_32_420# a_41_420# Vdd hpfet w=10.4u l=0.6u
+ ad=0p pd=0u as=0p ps=0u 
M59 a_41_420# a_32_420# Vdd Vdd hpfet w=10.4u l=0.6u
+ ad=0p pd=0u as=0p ps=0u 
M60 a_41_540# a_15_420# a_41_420# Vdd hpfet w=10.4u l=0.6u
+ ad=0p pd=0u as=0p ps=0u 
M61 a_41_420# a_15_420# a_41_540# Vdd hpfet w=10.4u l=0.6u
+ ad=0p pd=0u as=0p ps=0u 
M62 a_41_540# a_15_420# a_41_420# Vdd hpfet w=10.4u l=0.6u
+ ad=0p pd=0u as=0p ps=0u 
M63 a_41_420# a_15_420# a_41_540# Vdd hpfet w=10.4u l=0.6u
+ ad=0p pd=0u as=0p ps=0u 
M64 Vdd a_176_413# a_31_658# Vdd hpfet w=10.4u l=0.6u
+ ad=0p pd=0u as=0p ps=0u 
M65 a_176_413# a_41_420# Vdd Vdd hpfet w=10.4u l=0.6u
+ ad=0p pd=0u as=0p ps=0u 
M66 Vdd a_202_572# a_31_343# Vdd hpfet w=10.4u l=0.6u
+ ad=0p pd=0u as=0p ps=0u 
M67 a_202_572# a_41_540# Vdd Vdd hpfet w=10.4u l=0.6u
+ ad=0p pd=0u as=0p ps=0u 
M68 a_329_420# a_326_417# Vdd Vdd hpfet w=10.4u l=0.6u
+ ad=0p pd=0u as=0p ps=0u 
M69 Vdd a_326_417# a_329_420# Vdd hpfet w=10.4u l=0.6u
+ ad=0p pd=0u as=0p ps=0u 
M70 a_329_420# a_326_417# Vdd Vdd hpfet w=10.4u l=0.6u
+ ad=0p pd=0u as=0p ps=0u 
M71 Vdd a_326_417# a_329_420# Vdd hpfet w=10.4u l=0.6u
+ ad=0p pd=0u as=0p ps=0u 
M72 a_329_420# a_326_417# Vdd Vdd hpfet w=10.4u l=0.6u
+ ad=0p pd=0u as=0p ps=0u 
M73 Vdd a_326_417# a_329_420# Vdd hpfet w=10.4u l=0.6u
+ ad=0p pd=0u as=0p ps=0u 
M74 DI a_329_420# Vdd Vdd hpfet w=10.4u l=0.6u
+ ad=0p pd=0u as=0p ps=0u 
M75 Vdd a_329_420# DI Vdd hpfet w=10.4u l=0.6u
+ ad=0p pd=0u as=0p ps=0u 
M76 DI a_329_420# Vdd Vdd hpfet w=10.4u l=0.6u
+ ad=0p pd=0u as=0p ps=0u 
M77 Vdd a_329_420# DI Vdd hpfet w=10.4u l=0.6u
+ ad=0p pd=0u as=0p ps=0u 
M78 DI a_329_420# Vdd Vdd hpfet w=10.4u l=0.6u
+ ad=0p pd=0u as=0p ps=0u 
M79 Vdd a_329_420# DI Vdd hpfet w=10.4u l=0.6u
+ ad=0p pd=0u as=0p ps=0u 
M80 Gnd2 a_31_343# YPAD Gnd2 hnfet w=35u l=0.6u
+ ad=0p pd=0u as=0p ps=0u 
M81 Gnd2 a_31_343# YPAD Gnd2 hnfet w=35u l=0.6u
+ ad=0p pd=0u as=0p ps=0u 
M82 YPAD Gnd2 Gnd2 Gnd2 hnfet w=35u l=0.6u
+ ad=0p pd=0u as=0p ps=0u 
M83 YPAD Gnd2 Gnd2 Gnd2 hnfet w=35u l=0.6u
+ ad=0p pd=0u as=0p ps=0u 
M84 Gnd2 Gnd2 YPAD Gnd2 hnfet w=35u l=0.6u
+ ad=0p pd=0u as=0p ps=0u 
M85 Gnd2 Gnd2 YPAD Gnd2 hnfet w=35u l=0.6u
+ ad=0p pd=0u as=0p ps=0u 
M86 YPAD Gnd2 Gnd2 Gnd2 hnfet w=35u l=0.6u
+ ad=0p pd=0u as=0p ps=0u 
M87 Gnd2 Gnd2 YPAD Gnd2 hnfet w=35u l=0.6u
+ ad=0p pd=0u as=0p ps=0u 
M88 YPAD Gnd2 Gnd2 Gnd2 hnfet w=35u l=0.6u
+ ad=0p pd=0u as=0p ps=0u 
M89 Gnd2 Gnd2 YPAD Gnd2 hnfet w=35u l=0.6u
+ ad=0p pd=0u as=0p ps=0u 
M90 YPAD Gnd2 Gnd2 Gnd2 hnfet w=35u l=0.6u
+ ad=0p pd=0u as=0p ps=0u 
M91 YPAD Gnd2 Gnd2 Gnd2 hnfet w=35u l=0.6u
+ ad=0p pd=0u as=0p ps=0u 
M92 Gnd2 Gnd2 YPAD Gnd2 hnfet w=35u l=0.6u
+ ad=0p pd=0u as=0p ps=0u 
M93 Gnd2 Gnd2 YPAD Gnd2 hnfet w=35u l=0.6u
+ ad=0p pd=0u as=0p ps=0u 
M94 YPAD Gnd2 Gnd2 Gnd2 hnfet w=35u l=0.6u
+ ad=0p pd=0u as=0p ps=0u 
M95 YPAD Gnd2 Gnd2 Gnd2 hnfet w=35u l=0.6u
+ ad=0p pd=0u as=0p ps=0u 
R0 YPAD a_326_417# 100
.ends PADINC

.subckt PADINOUT DI DO Vdd2 Gnd2 OEN Vdd Gnd YPAD
M0 Vdd2 Vdd2 YPAD Vdd2 hpfet w=35u l=0.6u
+ ad=0p pd=0u as=0p ps=0u 
M1 Vdd2 Vdd2 YPAD Vdd2 hpfet w=35u l=0.6u
+ ad=0p pd=0u as=0p ps=0u 
M2 YPAD Vdd2 Vdd2 Vdd2 hpfet w=35u l=0.6u
+ ad=0p pd=0u as=0p ps=0u 
M3 YPAD Vdd2 Vdd2 Vdd2 hpfet w=35u l=0.6u
+ ad=0p pd=0u as=0p ps=0u 
M4 Vdd2 Vdd2 YPAD Vdd2 hpfet w=35u l=0.6u