
simulator lang=spectre

model ami06N bsim3v3 type = n
+version = 3.1            tnom    = 27             tox     = 1.41E-8
+xj      = 1.5E-7         nch     = 1.7E17         vth0    = 0.7086
+k1      = 0.8354582      k2      = -0.088431      k3      = 41.4403818
+k3b     = -14            w0      = 6.480766E-7    nlx     = 1E-10
+dvt0w   = 0              dvt1w   = 5.3E6          dvt2w   = -0.032
+dvt0    = 3.6139113      dvt1    = 0.3795745      dvt2    = -0.1399976
+u0      = 533.6953445    ua      = 7.558023E-10   ub      = 1.181167E-18
+uc      = 2.582756E-11   vsat    = 1.300981E5     a0      = 0.5292985
+ags     = 0.1463715      b0      = 1.283336E-6    b1      = 1.408099E-6
+keta    = -0.0173166     a1      = 0              a2      = 1
+rdsw    = 2.268366E3     prwg    = -1E-3          prwb    = 6.320549E-5
+wr      = 1              wint    = 2.043512E-7    lint    = 3.034496E-8
+xl      = 0              xw      = 0              dwg     = -1.446149E-8
+dwb     = 2.077539E-8    voff    = -0.1137226     nfactor = 1.2880596
+cit     = 0              cdsc    = 1.506004E-4    cdscd   = 0
+cdscb   = 0              eta0    = 3.815372E-4    etab    = -1.029178E-3
+dsub    = 2.173055E-4    pclm    = 0.6171774      pdiblc1 = 0.185986
+pdiblc2 = 3.473187E-3    pdiblcb = -1E-3          drout   = 0.4037723
+pscbe1  = 5.998012E9     pscbe2  = 3.788068E-8    pvag    = 0.012927
+delta   = 0.01           mobmod  = 1              prt     = 0
+ute     = -1.5           kt1     = -0.11          kt1l    = 0
+kt2     = 0.022          ua1     = 4.31E-9        ub1     = -7.61E-18
+uc1     = -5.6E-11       at      = 3.3E4          wl      = 0
+wln     = 1              ww      = 0              wwn     = 1
+wwl     = 0              ll      = 0              lln     = 1
+lw      = 0              lwn     = 1              lwl     = 0
+capmod  = 2              xpart   = 0.4            cgdo    = 1.99E-10
+cgso    = 1.99E-10       cgbo    = 0              cj      = 4.233802E-4
+pb      = 0.9899238      mj      = 0.4495859      cjsw    = 3.825632E-10
+pbsw    = 0.1082556      mjsw    = 0.1083618      pvth0   = 0.0212852
+prdsw   = -16.1546703    pk2     = 0.0253069      wketa   = 0.0188633
+lketa   = 0.0204965       

model ami06P bsim3v3 type = p
+version = 3.1            tnom    = 27             tox     = 1.41E-8
+xj      = 1.5E-7         nch     = 1.7E17         vth0    = -0.9179952
+k1      = 0.5575604      k2      = 0.010265       k3      = 14.0655075
+k3b     = -2.3032921     w0      = 1.147829E-6    nlx     = 1.114768E-10
+dvt0w   = 0              dvt1w   = 5.3E6          dvt2w   = -0.032
+dvt0    = 2.2896412      dvt1    = 0.5213085      dvt2    = -0.1337987
+u0      = 202.4540953    ua      = 2.290194E-9    ub      = 9.779742E-19
+uc      = -3.69771E-11   vsat    = 1.307891E5     a0      = 0.8356881
+ags     = 0.1568774      b0      = 2.365956E-6    b1      = 5E-6
+keta    = -5.769328E-3   a1      = 0              a2      = 1
+rdsw    = 2.746814E3     prwg    = 2.34865E-3     prwb    = 0.0172298
+wr      = 1              wint    = 2.586255E-7    lint    = 7.205014E-8
+xl      = 0              xw      = 0              dwg     = -2.133054E-8
+dwb     = 9.857534E-9    voff    = -0.0837499     nfactor = 1.2415529
+cit     = 0              cdsc    = 4.363744E-4    cdscd   = 0
+cdscb   = 0              eta0    = 0.11276        etab    = -2.9484E-3
+dsub    = 0.3389402      pclm    = 4.9847806      pdiblc1 = 2.481735E-5
+pdiblc2 = 0.01           pdiblcb = 0              drout   = 0.9975107
+pscbe1  = 3.497872E9     pscbe2  = 4.974352E-9    pvag    = 10.9914549
+delta   = 0.01           mobmod  = 1              prt     = 0
+ute     = -1.5           kt1     = -0.11          kt1l    = 0
+kt2     = 0.022          ua1     = 4.31E-9        ub1     = -7.61E-18
+uc1     = -5.6E-11       at      = 3.3E4          wl      = 0
+wln     = 1              ww      = 0              wwn     = 1
+wwl     = 0              ll      = 0              lln     = 1
+lw      = 0              lwn     = 1              lwl     = 0
+capmod  = 2              xpart   = 0.4            cgdo    = 2.4E-10
+cgso    = 2.4E-10        cgbo    = 0              cj      = 7.273568E-4
+pb      = 0.9665597      mj      = 0.4959837      cjsw    = 3.114708E-10
+pbsw    = 0.99           mjsw    = 0.2653654      pvth0   = 9.420541E-3
+prdsw   = -231.2571566   pk2     = 1.396684E-3    wketa   = 1.862966E-3
+lketa   = 5.728589E-3     


